10836746
  -OEChem-03222501172D

 51 54  0     1  0  0  0  0  0999 V2000
    2.8660   -3.0000    0.0000 Cl  0  0  0  0  0  0  0  0  0  0  0  0
    4.5981   -6.0000    0.0000 Cl  0  0  0  0  0  0  0  0  0  0  0  0
    3.7320   -0.5000    0.0000 O   0  0  0  0  0  0  0  0  0  0  0  0
    5.4641   -0.5000    0.0000 N   0  0  0  0  0  0  0  0  0  0  0  0
    6.2731    0.0878    0.0000 N   0  0  0  0  0  0  0  0  0  0  0  0
    4.9641    1.0388    0.0000 N   0  0  0  0  0  0  0  0  0  0  0  0
    4.5981   -2.0000    0.0000 C   0  0  3  0  0  0  0  0  0  0  0  0
    5.4641   -1.5000    0.0000 C   0  0  0  0  0  0  0  0  0  0  0  0
    3.7320   -1.5000    0.0000 C   0  0  0  0  0  0  0  0  0  0  0  0
    4.5981   -3.0000    0.0000 C   0  0  0  0  0  0  0  0  0  0  0  0
    3.7320   -3.5000    0.0000 C   0  0  0  0  0  0  0  0  0  0  0  0
    5.4641   -3.5000    0.0000 C   0  0  0  0  0  0  0  0  0  0  0  0
    2.8660    0.0000    0.0000 C   0  0  0  0  0  0  0  0  0  0  0  0
    2.8660    1.0000    0.0000 C   0  0  0  0  0  0  0  0  0  0  0  0
    3.7320   -4.5000    0.0000 C   0  0  0  0  0  0  0  0  0  0  0  0
    5.4641   -4.5000    0.0000 C   0  0  0  0  0  0  0  0  0  0  0  0
    4.6551    0.0878    0.0000 C   0  0  0  0  0  0  0  0  0  0  0  0
    4.5981   -5.0000    0.0000 C   0  0  0  0  0  0  0  0  0  0  0  0
    3.7320    1.5000    0.0000 C   0  0  0  0  0  0  0  0  0  0  0  0
    2.0000    1.5000    0.0000 C   0  0  0  0  0  0  0  0  0  0  0  0
    2.8660    3.0000    0.0000 C   0  0  0  0  0  0  0  0  0  0  0  0
    3.7320    2.5000    0.0000 C   0  0  0  0  0  0  0  0  0  0  0  0
    2.0000    2.5000    0.0000 C   0  0  0  0  0  0  0  0  0  0  0  0
    5.9641    1.0388    0.0000 C   0  0  0  0  0  0  0  0  0  0  0  0
    2.8660    4.0000    0.0000 C   0  0  0  0  0  0  0  0  0  0  0  0
    2.0000    4.5000    0.0000 C   0  0  0  0  0  0  0  0  0  0  0  0
    3.7320    4.5000    0.0000 C   0  0  0  0  0  0  0  0  0  0  0  0
    2.0000    5.5000    0.0000 C   0  0  0  0  0  0  0  0  0  0  0  0
    3.7320    5.5000    0.0000 C   0  0  0  0  0  0  0  0  0  0  0  0
    2.8660    6.0000    0.0000 C   0  0  0  0  0  0  0  0  0  0  0  0
    4.5981   -1.3800    0.0000 H   0  0  0  0  0  0  0  0  0  0  0  0
    5.6762   -2.0826    0.0000 H   0  0  0  0  0  0  0  0  0  0  0  0
    6.0747   -1.3923    0.0000 H   0  0  0  0  0  0  0  0  0  0  0  0
    3.1215   -1.3923    0.0000 H   0  0  0  0  0  0  0  0  0  0  0  0
    3.5200   -2.0826    0.0000 H   0  0  0  0  0  0  0  0  0  0  0  0
    6.0010   -3.1900    0.0000 H   0  0  0  0  0  0  0  0  0  0  0  0
    2.2554    0.1077    0.0000 H   0  0  0  0  0  0  0  0  0  0  0  0
    2.6540   -0.5826    0.0000 H   0  0  0  0  0  0  0  0  0  0  0  0
    3.1951   -4.8100    0.0000 H   0  0  0  0  0  0  0  0  0  0  0  0
    6.0010   -4.8100    0.0000 H   0  0  0  0  0  0  0  0  0  0  0  0
    4.0654   -0.1038    0.0000 H   0  0  0  0  0  0  0  0  0  0  0  0
    4.2690    1.1900    0.0000 H   0  0  0  0  0  0  0  0  0  0  0  0
    1.4631    1.1900    0.0000 H   0  0  0  0  0  0  0  0  0  0  0  0
    4.2690    2.8100    0.0000 H   0  0  0  0  0  0  0  0  0  0  0  0
    1.4631    2.8100    0.0000 H   0  0  0  0  0  0  0  0  0  0  0  0
    6.3285    1.5404    0.0000 H   0  0  0  0  0  0  0  0  0  0  0  0
    1.4631    4.1900    0.0000 H   0  0  0  0  0  0  0  0  0  0  0  0
    4.2690    4.1900    0.0000 H   0  0  0  0  0  0  0  0  0  0  0  0
    1.4631    5.8100    0.0000 H   0  0  0  0  0  0  0  0  0  0  0  0
    4.2690    5.8100    0.0000 H   0  0  0  0  0  0  0  0  0  0  0  0
    2.8660    6.6200    0.0000 H   0  0  0  0  0  0  0  0  0  0  0  0
  1 11  1  0  0  0  0
  2 18  1  0  0  0  0
  3  9  1  0  0  0  0
  3 13  1  0  0  0  0
  4  5  1  0  0  0  0
  4  8  1  0  0  0  0
  4 17  1  0  0  0  0
  5 24  2  0  0  0  0
  6 17  2  0  0  0  0
  6 24  1  0  0  0  0
  7  8  1  0  0  0  0
  7  9  1  0  0  0  0
  7 10  1  0  0  0  0
  7 31  1  0  0  0  0
  8 32  1  0  0  0  0
  8 33  1  0  0  0  0
  9 34  1  0  0  0  0
  9 35  1  0  0  0  0
 10 11  2  0  0  0  0
 10 12  1  0  0  0  0
 11 15  1  0  0  0  0
 12 16  2  0  0  0  0
 12 36  1  0  0  0  0
 13 14  1  0  0  0  0
 13 37  1  0  0  0  0
 13 38  1  0  0  0  0
 14 19  2  0  0  0  0
 14 20  1  0  0  0  0
 15 18  2  0  0  0  0
 15 39  1  0  0  0  0
 16 18  1  0  0  0  0
 16 40  1  0  0  0  0
 17 41  1  0  0  0  0
 19 22  1  0  0  0  0
 19 42  1  0  0  0  0
 20 23  2  0  0  0  0
 20 43  1  0  0  0  0
 21 22  2  0  0  0  0
 21 23  1  0  0  0  0
 21 25  1  0  0  0  0
 22 44  1  0  0  0  0
 23 45  1  0  0  0  0
 24 46  1  0  0  0  0
 25 26  2  0  0  0  0
 25 27  1  0  0  0  0
 26 28  1  0  0  0  0
 26 47  1  0  0  0  0
 27 29  2  0  0  0  0
 27 48  1  0  0  0  0
 28 30  2  0  0  0  0
 28 49  1  0  0  0  0
 29 30  1  0  0  0  0
 29 50  1  0  0  0  0
 30 51  1  0  0  0  0
M  END
> <PUBCHEM_COMPOUND_CID>
10836746

> <PUBCHEM_COMPOUND_CANONICALIZED>
1

> <PUBCHEM_CACTVS_COMPLEXITY>
497

> <PUBCHEM_CACTVS_HBOND_ACCEPTOR>
3

> <PUBCHEM_CACTVS_HBOND_DONOR>
0

> <PUBCHEM_CACTVS_ROTATABLE_BOND>
8

> <PUBCHEM_CACTVS_SUBSKEYS>
AAADceB7IAAGAAAAAAAAAAAAAAAAAWAAAAAwYMAAAAAAAAAB1AAAHgIIAAAADQLhmCY1EIYIFACiAiBDJAASAAswhYAdyAAICoiILiKBuxmGMAAuwAMIqAeQwPAOxAAAAACBAACIAAAAAQIAAAAAAAAAAA==

> <PUBCHEM_IUPAC_OPENEYE_NAME>
1-[2-(2,4-dichlorophenyl)-3-[(4-phenylphenyl)methoxy]propyl]-1,2,4-triazole

> <PUBCHEM_IUPAC_CAS_NAME>
1-[2-(2,4-dichlorophenyl)-3-[(4-phenylphenyl)methoxy]propyl]-1,2,4-triazole

> <PUBCHEM_IUPAC_NAME_MARKUP>
1-[2-(2,4-dichlorophenyl)-3-[(4-phenylphenyl)methoxy]propyl]-1,2,4-triazole

> <PUBCHEM_IUPAC_NAME>
1-[2-(2,4-dichlorophenyl)-3-[(4-phenylphenyl)methoxy]propyl]-1,2,4-triazole

> <PUBCHEM_IUPAC_SYSTEMATIC_NAME>
1-[2-(2,4-dichlorophenyl)-3-[(4-phenylphenyl)methoxy]propyl]-1,2,4-triazole

> <PUBCHEM_IUPAC_TRADITIONAL_NAME>
1-[2-(2,4-dichlorophenyl)-3-(4-phenylbenzyl)oxy-propyl]-1,2,4-triazole

> <PUBCHEM_IUPAC_INCHI>
InChI=1S/C24H21Cl2N3O/c25-22-10-11-23(24(26)12-22)21(13-29-17-27-16-28-29)15-30-14-18-6-8-20(9-7-18)19-4-2-1-3-5-19/h1-12,16-17,21H,13-15H2

> <PUBCHEM_IUPAC_INCHIKEY>
LJFNWFWCIGTAOY-UHFFFAOYSA-N

> <PUBCHEM_XLOGP3_AA>
5.9

> <PUBCHEM_EXACT_MASS>
437.1061677

> <PUBCHEM_MOLECULAR_FORMULA>
C24H21Cl2N3O

> <PUBCHEM_MOLECULAR_WEIGHT>
438.3

> <PUBCHEM_SMILES>
C1=CC=C(C=C1)C2=CC=C(C=C2)COCC(CN3C=NC=N3)C4=C(C=C(C=C4)Cl)Cl

> <PUBCHEM_OPENEYE_CAN_SMILES>
C1=CC=C(C=C1)C2=CC=C(C=C2)COCC(CN3C=NC=N3)C4=C(C=C(C=C4)Cl)Cl

> <PUBCHEM_OPENEYE_ISO_SMILES>
C1=CC=C(C=C1)C2=CC=C(C=C2)COCC(CN3C=NC=N3)C4=C(C=C(C=C4)Cl)Cl

> <PUBCHEM_CACTVS_TPSA>
39.9

> <PUBCHEM_MONOISOTOPIC_WEIGHT>
437.1061677

> <PUBCHEM_TOTAL_CHARGE>
0

> <PUBCHEM_HEAVY_ATOM_COUNT>
30

> <PUBCHEM_ATOM_DEF_STEREO_COUNT>
0

> <PUBCHEM_ATOM_UDEF_STEREO_COUNT>
1

> <PUBCHEM_BOND_DEF_STEREO_COUNT>
0

> <PUBCHEM_BOND_UDEF_STEREO_COUNT>
0

> <PUBCHEM_ISOTOPIC_ATOM_COUNT>
0

> <PUBCHEM_COMPONENT_COUNT>
1

> <PUBCHEM_CACTVS_TAUTO_COUNT>
-1

> <PUBCHEM_COORDINATE_TYPE>
1
5
255

> <PUBCHEM_BONDANNOTATIONS>
10  11  8
10  12  8
11  15  8
12  16  8
14  19  8
14  20  8
15  18  8
16  18  8
19  22  8
20  23  8
21  22  8
21  23  8
25  26  8
25  27  8
26  28  8
27  29  8
28  30  8
29  30  8
4  17  8
4  5  8
5  24  8
6  17  8
6  24  8
7  8  3

$$$$
